LTspice 26.0.1 for Windows
Circuit: C:\Github Luis B\Comunications\FM Transmitter\FM Transmitter.net
Start Time: Sun Jun 14 20:35:00 2026
solver = Normal
Maximum thread count: 16
tnom = 27
temp = 27
method = trap
Compress1stOrder = true
Compress2ndOrder = true
.OP point found by inspection.
.OP point found by inspection.
Total elapsed time: 5.353 seconds.

Files loaded:
C:\Github Luis B\Comunications\FM Transmitter\FM Transmitter.net
C:\Users\kukul\AppData\Local\LTspice\lib\cmp\standard.bjt

